%MaxCore 14000
! RIJCOSX Grid4 NoFinalGrid NoMOPrint  NoAutoStart
! LPNO-CCSD def2-TZVP def2-TZVP/J def2-TZVP/C

* xyz 1 1
H                   5.6444290446        1.5244162729       -9.5935342693
C                   4.9092849995        1.2208293409      -10.3424072869
C                   5.1740600935       -0.1441945120      -10.9833506366
O                   6.0205958040       -0.8982442272      -10.4320823644
O                   4.4313929054       -0.4721356933      -11.9988933032
H                   3.9422259059        1.1151394780       -9.7984598144
H                   4.7755697683        2.0157640263      -11.1100689759
H                   2.2867984234       -1.0861990462       -5.2749464867
C                   1.9139532394       -1.5846082061       -6.1581166308
N                   0.6085356151       -1.4546453000       -6.6146343927
C                   2.5507904093       -2.3986552380       -7.0814931523
C                   0.4864053744       -2.1556362900       -7.7743231791
N                   1.6556198549       -2.7433071405       -8.0874341747
H                  -0.1550409594       -0.9734737169       -6.1083728275
H                   3.5881790971       -2.7434388261       -7.0974213242
H                  -0.4379765788       -2.2047547296       -8.3592416740
H                  -0.9893342759       -7.5745780402       -7.1500652582
C                  -0.3486410676       -7.1151171672       -7.8854861200
N                   0.1613818438       -7.8494343600       -8.9429954853
C                   0.1969973841       -5.8491058171       -8.0042144169
C                   0.9800058895       -7.0364500828       -9.6645536096
N                   1.0321710261       -5.8065188351       -9.1159539214
H                  -0.0159266215       -8.8952685386       -9.0985602101
H                   0.0843709593       -4.9893990397       -7.3375768570
H                   1.5140586094       -7.3581338880      -10.5661102025
H                  -2.5317336594       -3.0051634008      -11.9292089059
C                  -1.4597017835       -3.0683275141      -11.8167182932
N                  -0.5625996507       -2.6096779002      -12.7731564439
C                  -0.6805584460       -3.6079353703      -10.8057247473
C                   0.6955764147       -2.8726592942      -12.3249063969
N                   0.6567752305       -3.4754379185      -11.1289325428
H                  -0.8143381622       -2.1076301293      -13.6747078634
H                  -0.9746411763       -4.1268586579       -9.8893669562
H                   1.6129110451       -2.6486346488      -12.8715152433
Zn                  2.0740346717       -4.0362175778       -9.6921570896
H                   6.0376704953       -4.8106795127       -9.7466528160
C                   5.0384185490       -4.4191937745       -9.9459724795
O                   4.0202115700       -4.7999747218       -9.3103544018
C                   4.9626959429       -3.3814896255      -10.9757127152
O                   3.6202411670       -2.9490068655      -11.2116769609
H                   5.4824418041       -3.6986930124      -11.9062169791
H                   5.6127881803       -2.4993153770      -10.6523878503
H                   3.7104359211       -1.9890851270      -11.5374843420
C                   2.7011978174       -5.5221880724      -13.8585573270
C                   4.1102596505       -5.5750221489      -13.2593994168
O                   5.0962721463       -4.8179564382      -13.9877791564
C                   4.6290514655       -6.9766947276      -12.9161165011
O                   3.9288777143       -7.8868639912      -12.4882655696
H                   2.5269911470       -4.5248381488      -14.3107956446
H                   2.5489248588       -6.2991592207      -14.6278515873
H                   1.9491424110       -5.6704284951      -13.0622916970
H                   4.0559605459       -5.0819163879      -12.2690467803
H                   4.9432795519       -4.8742074427      -14.9971208427
H                   5.7413711705       -7.1118062072      -13.0087033775
*

